* batch mode commands:
*
.ac dec 20 1 100e6
.plot ac vdb(vout)
