v 20200319 2
P 200 300 0 300 1 0 1
{
T -100 200 5 10 0 0 0 0 1
pinseq=1
T -100 200 5 10 0 0 0 0 1
pinnumber=1
T 200 300 5 10 0 0 0 0 1
pintype=io
T 200 300 5 10 0 0 0 0 1
pinlabel=1
}
T 700 400 8 10 0 1 0 0 1
device=spice-IO
T 650 250 8 10 1 1 0 0 1
refdes=P?
L 300 400 200 300 3 0 0 0 -1 -1
L 300 200 200 300 3 0 0 0 -1 -1
L 300 400 500 400 3 0 0 0 -1 -1
T -12 97 9 6 1 0 0 2 1
.SUBCKT IO Pin
L 300 200 500 200 3 0 0 0 -1 -1
L 600 300 500 400 3 0 0 0 -1 -1
L 600 300 500 200 3 0 0 0 -1 -1
