.model 2N3904   NPN(Stuff
+               More stuff
+               Yet more stuff
+               Final line of stuff)
