v 20031019 1
P 400 300 200 300 1 0 1
{
T 100 200 5 10 0 0 0 0 1
pinseq=1
T 100 200 5 10 0 0 0 0 1
pinnumber=1
}
T 900 400 8 10 0 1 0 0 1
device=spice-IO
T 850 250 8 10 1 1 0 0 1
refdes=P?
L 500 400 400 300 3 0 0 0 -1 -1
L 500 200 400 300 3 0 0 0 -1 -1
L 500 400 700 400 3 0 0 0 -1 -1
T 188 97 9 6 1 0 0 0 1
.SUBCKT IO Pin
L 500 200 700 200 3 0 0 0 -1 -1
L 800 300 700 400 3 0 0 0 -1 -1
L 800 300 700 200 3 0 0 0 -1 -1
