* batch mode commands:
*
.ac dec 20 1e6 100e9
.plot ac vdb(vout)
