* .OP
.AC DEC 20 1MegHz 100GHz
* .DC I1 0 5mA .001mA
* .TRAN 0ns 20ns
