* This is a diode model used in the Agilent MSA-26 model
* documented in 5980-2496E.pdf.
* Model entered 3.30.2003 by SDB
.model DIODEM1_Q2   D(IS=5.62e-17 N=1 CJO=9.676e-14 
+  VJ=0.729 M=0.44 FC=0.8 TNOM=21)
