* This is a diode model used in the Agilent MSA-26 model
* documented in 5980-2496E.pdf.
* Model entered 3.31.2003 by SDB
.model DIODEM2_Q1   D(IS=1e-24 N=1.0029 CJO=2.452e-14 
+  VJ=0.8971 M=0.2292 FC=0.8 TNOM=21)
