* This is a diode model used in the Agilent MSA-26 model
* documented in 5980-2496E.pdf.
* Model entered 3.31.2003 by SDB
.model DIODEM3_Q1   D(IS=1e-24 RS=2.173e2 CJO=8.822e-14 
+  VJ=0.6 M=0.42 FC=0.8 TNOM=21)
