* This is a diode model used in the Agilent MSA-26 model
* documented in 5980-2496E.pdf.
* Model entered 3.30.2003 by SDB
.model DIODEM2_Q2   D(IS=1e-24 N=1.0029 CJO=9.023e-14 
+  VJ=0.8971 M=2.292e-1 FC=0.8 TNOM=21)
