* This is a diode model used in the Agilent MSA-26 model
* documented in 5980-2496E.pdf.
* Model entered 3.30.2003 by SDB
.model DIODEM3_Q2   D(IS=5.62e-17 RS=1.695e-2 CJO=1.906e-14 
+  VJ=0.6 M=0.42 FC=0.8 TNOM=21)
