* This is a diode model used in the Agilent MSA-26 model
* documented in 5980-2496E.pdf.
* Model entered 3.31.2003 by SDB
.model DIODEM1_Q1   D(IS=1.405e-17 N=1 CJO=2.281e-14 
+  VJ=0.729 M=0.44 FC=0.8 TNOM=21)
